%chk=1_unrelaxed-mega_dimer_0_mon-1.chk
%nproc=4
%mem=28GB
#p wb97xd 6-311++G** td=(nstates=4) nosymm

 Title 

0 1
     C  -2.776543  -1.924735   4.897973
     H  -2.854285  -2.558909   5.573750
     C  -3.890126  -1.119008   4.571217
     C  -1.587562  -1.787636   4.238726
     C  -3.722383  -0.197370   3.525956
     N  -5.069498  -1.230189   5.243845
     C  -1.414540  -0.865071   3.200549
     H  -0.870075  -2.324410   4.487560
     C  -2.520354  -0.088452   2.874017
     H  -4.433286   0.345576   3.272062
     C  -5.227140  -2.192762   6.315417
     C  -6.175910  -0.333234   4.980056
     C  -0.187930  -0.727149   2.452023
     H  -2.442470   0.530706   2.184748
     H  -5.071799  -3.077272   5.976292
     H  -6.119226  -2.137223   6.666686
     H  -4.595811  -2.002489   7.013008
     H  -6.889732  -0.516307   5.595114
     H  -6.485952  -0.463853   4.080520
     H  -5.884781   0.574931   5.089125
     C   0.972198  -1.380967   2.632829
     H  -0.202009  -0.109020   1.757468
     C   2.104387  -1.188740   1.745100
     H   1.051258  -1.972663   3.346274
     C   3.385338  -1.867756   2.009114
     O   1.999622  -0.453775   0.734808
     C   4.453453  -1.698054   1.107104
     C   3.603776  -2.682122   3.125775
     O   4.337836  -0.964116  -0.016866
     C   5.679781  -2.297669   1.359086
     C   4.812267  -3.289143   3.348410
     H   2.911849  -2.815005   3.731950
     H   3.596311  -0.616072  -0.040478
     H   6.386915  -2.164992   0.770228
     C   5.857251  -3.085500   2.468776
     H   4.928587  -3.837333   4.090640
     H   6.682270  -3.482501   2.628894

