%chk=1_unrelaxed-mega_dimer_0_mon-0.chk
%nproc=4
%mem=28GB
#p wb97xd 6-311++G** td=(nstates=4) nosymm

 Title 

0 1
     C  -0.040533  -3.217765  -0.724126
     H  -0.118275  -2.583592  -0.048350
     C  -1.154116  -4.023492  -1.050883
     C   1.148448  -3.354864  -1.383373
     C  -0.986372  -4.945131  -2.096143
     N  -2.333488  -3.912311  -0.378254
     C   1.321470  -4.277428  -2.421550
     H   1.865935  -2.818090  -1.134539
     H  -1.697276  -5.488076  -2.350037
     C   0.215656  -5.054049  -2.748082
     C  -3.439900  -4.809266  -0.642043
     C  -2.491130  -2.949738   0.693317
     C   2.548080  -4.415351  -3.170077
     H   0.293540  -5.673206  -3.437351
     H  -3.148772  -5.717431  -0.532974
     H  -4.153723  -4.626193  -0.026985
     H  -3.749943  -4.678647  -1.541578
     H  -2.335790  -2.065229   0.354192
     H  -3.383215  -3.005277   1.044586
     H  -1.859800  -3.140011   1.390908
     C   3.708208  -3.761533  -2.989269
     H   2.534001  -5.033479  -3.864630
     C   4.840397  -3.953760  -3.876999
     H   3.787268  -3.169837  -2.275825
     C   6.121348  -3.274744  -3.612985
     O   4.735633  -4.688726  -4.887291
     C   7.189463  -3.444447  -4.514996
     C   6.339785  -2.460378  -2.496324
     C   8.415791  -2.844831  -4.263013
     O   7.073845  -4.178384  -5.638965
     C   7.548277  -1.853357  -2.273689
     H   5.647858  -2.327496  -1.890149
     H   9.122925  -2.977508  -4.851871
     C   8.593261  -2.057000  -3.153322
     H   6.332321  -4.526429  -5.662578
     H   7.664597  -1.305166  -1.531459
     H   9.418279  -1.659999  -2.993205

